// Generated for: spectre
// Generated on: 2020-01-13
// Design library name: AP-CNFET
// Design cell name: Scientific_Reports_AP-CNFET
// Design view name: netlist
simulator lang=spectre
global 0 vdd!
parameters t=4n d=0 Vd=3000m R=1 Vth=1
// Library name: AP-CNFET
// Cell name: INV
// View name: schematic
subckt INV in out
    I0 (0 out in vdd!) CNT4_transient M=5 Vthp=0.1 Vthn=0.1 VB_th=0 \ 
        Con_n=5e-10 Con_p=5e-10 In_min=1e-15 Ip_min=1e-15 Coe_DS=2000 \ 
        Roff=1e+07 Coe_fixed_DS=1e-09 C_conv=1e-18 C_par=5e-15
    I1 (out vdd! in 0) CNT4_transient M=5 Vthp=0.1 Vthn=0.1 VB_th=0 \ 
        Con_n=5e-10 Con_p=5e-10 In_min=1e-15 Ip_min=1e-15 Coe_DS=2000 \ 
        Roff=1e+07 Coe_fixed_DS=1e-09 C_conv=1e-18 C_par=5e-15
ends INV
// End of subcircuit definition.
// Library name: AP-CNFET
// Cell name: INV_chain
// View name: schematic
subckt INV_chain in out
    I0 (net1 out) INV
    I1 (net2 net1) INV
    I2 (net3 net2) INV
    I3 (net4 net3) INV
    I4 (net5 net4) INV
    I5 (net6 net5) INV
    I6 (net7 net6) INV
    I7 (net8 net7) INV
    I8 (net9 net8) INV
    I9 (in net9) INV
ends INV_chain
// End of subcircuit definition.
// Cell name: AP-CNFET
// View name: schematic
subckt APCNFET Drain Source FG BG
I0 (Drain Source FG BG) CNT4_transient M=10 Vthp=0.1 Vthn=0.1 VB_th=0 \ 
        Con_n=3e-10 Con_p=3e-10 In_min=1e-15 Ip_min=1e-15 Coe_DS=1000 \ 
        Roff=1e+06 Coe_fixed_DS=0.2
ends APCNFET
// End of subcircuit definition.
// Library name: AP-CNFET
// Cell name: MUX
// View name: schematic
subckt MUX i0 i1 i2 i3 i4 i5 i6 i7 i8 i9 i10 i11 i12 i13 i14 i15 i16 i17 i18 i19 i20 i21 i22 i23 i24 i25 i26 i27 i28 i29 i30 i31 voff s s0 s1 s2 s3 s4 out
    I0 (voff net033 s out) analog_mux vth=Vth
    I1 (net29 net30 s4 net033) analog_mux vth=Vth
    I2 (net25 net28 s3 net29) analog_mux vth=Vth
    I3 (net27 net26 s3 net30) analog_mux vth=Vth
    I4 (net19 net20 s2 net25) analog_mux vth=Vth
    I5 (net23 net24 s2 net28) analog_mux vth=Vth
    I6 (net21 net22 s2 net27) analog_mux vth=Vth
    I7 (net17 net18 s2 net26) analog_mux vth=Vth
    I8 (net9 net10 s1 net19) analog_mux vth=Vth
    I9 (net11 net12 s1 net20) analog_mux vth=Vth
    I10 (net13 net14 s1 net23) analog_mux vth=Vth
    I11 (net15 net16 s1 net24) analog_mux vth=Vth
    I12 (net1 net2 s1 net21) analog_mux vth=Vth
    I13 (net3 net4 s1 net22) analog_mux vth=Vth
    I14 (net5 net6 s1 net17) analog_mux vth=Vth
    I15 (net7 net8 s1 net18) analog_mux vth=Vth
    I16 (i31 i30 s0 net9) analog_mux vth=Vth
    I17 (i29 i28 s0 net10) analog_mux vth=Vth
    I18 (i27 i26 s0 net11) analog_mux vth=Vth
    I19 (i25 i24 s0 net12) analog_mux vth=Vth
    I20 (i23 i22 s0 net13) analog_mux vth=Vth
    I21 (i21 i20 s0 net14) analog_mux vth=Vth
    I22 (i19 i18 s0 net15) analog_mux vth=Vth
    I23 (i17 i16 s0 net16) analog_mux vth=Vth
    I24 (i15 i14 s0 net1) analog_mux vth=Vth
    I25 (i13 i12 s0 net2) analog_mux vth=Vth
    I26 (i11 i10 s0 net3) analog_mux vth=Vth
    I27 (i9 i8 s0 net4) analog_mux vth=Vth
    I28 (i7 i6 s0 net5) analog_mux vth=Vth
    I29 (i5 i4 s0 net6) analog_mux vth=Vth
    I30 (i3 i2 s0 net7) analog_mux vth=Vth
    I31 (i1 i0 s0 net8) analog_mux vth=Vth
ends MUX
// End of subcircuit definition.
// Cell name: res_volt_divide
// View name: schematic
subckt res_volt_divide _net0 1 2 3 4 5 6 7 8 9 10 11 12 13 14 15 16 17 18 19 20 21 22 23 24 25 26 27 28 29 30 31 
R1 (5 6) resistor r=R 
R2 (7 6) resistor r=R 
R3 (3 2) resistor r=R 
R4 (5 4) resistor r=R 
R5 (3 4) resistor r=R 
R6 (1 2) resistor r=R 
R7 (1 _net0) resistor r=R 
R8 (9 8) resistor r=R 
R9 (7 8) resistor r=R 
R10 (11 12) resistor r=R 
R11 (9 10) resistor r=R 
R12 (11 10) resistor r=R 
R13 (13 12) resistor r=R 
R14 (13 14) resistor r=R 
R15 (15 14) resistor r=R 
R16 (21 22) resistor r=R 
R17 (23 22) resistor r=R 
R18 (19 18) resistor r=R 
R19 (21 20) resistor r=R 
R20 (19 20) resistor r=R 
R21 (17 18) resistor r=R 
R22 (17 16) resistor r=R 
R23 (15 16) resistor r=R 
R24 (25 24) resistor r=R 
R25 (23 24) resistor r=R 
R26 (27 28) resistor r=R 
R27 (25 26) resistor r=R 
R28 (27 26) resistor r=R 
R29 (29 28) resistor r=R 
R30 (29 30) resistor r=R 
R31 (31 30) resistor r=R 
ends res_volt_divide 
// End of subcircuit definition.
VDD (vdd! 0) vsource dc=3000m type=dc
Vsen (vdd_sen 0) vsource dc=1500m type=dc
Vswn (SW 0) vsource type=pulse val0=0 val1=Vd period=t rise=1p fall=1p \ 
         width=3*t/4
W_sen_0 (sense_0_vs_1 vdd_sen SW 0) relay vt1=1500m vt2=2900m ropen=1T rclosed=1.0
W_sen_1 (sense_0_vs_2 vdd_sen SW 0) relay vt1=1500m vt2=2900m ropen=1T rclosed=1.0
W_sen_2 (sense_0_vs_3 vdd_sen SW 0) relay vt1=1500m vt2=2900m ropen=1T rclosed=1.0
W_sen_3 (sense_0_vs_4 vdd_sen SW 0) relay vt1=1500m vt2=2900m ropen=1T rclosed=1.0
W_sen_4 (sense_0_vs_5 vdd_sen SW 0) relay vt1=1500m vt2=2900m ropen=1T rclosed=1.0
W_sen_5 (sense_0_vs_6 vdd_sen SW 0) relay vt1=1500m vt2=2900m ropen=1T rclosed=1.0
W_sen_6 (sense_0_vs_7 vdd_sen SW 0) relay vt1=1500m vt2=2900m ropen=1T rclosed=1.0
W_sen_7 (sense_0_vs_8 vdd_sen SW 0) relay vt1=1500m vt2=2900m ropen=1T rclosed=1.0
W_sen_8 (sense_0_vs_9 vdd_sen SW 0) relay vt1=1500m vt2=2900m ropen=1T rclosed=1.0
W_sen_9 (sense_1_vs_2 vdd_sen SW 0) relay vt1=1500m vt2=2900m ropen=1T rclosed=1.0
W_sen_10 (sense_1_vs_3 vdd_sen SW 0) relay vt1=1500m vt2=2900m ropen=1T rclosed=1.0
W_sen_11 (sense_1_vs_4 vdd_sen SW 0) relay vt1=1500m vt2=2900m ropen=1T rclosed=1.0
W_sen_12 (sense_1_vs_5 vdd_sen SW 0) relay vt1=1500m vt2=2900m ropen=1T rclosed=1.0
W_sen_13 (sense_1_vs_6 vdd_sen SW 0) relay vt1=1500m vt2=2900m ropen=1T rclosed=1.0
W_sen_14 (sense_1_vs_7 vdd_sen SW 0) relay vt1=1500m vt2=2900m ropen=1T rclosed=1.0
W_sen_15 (sense_1_vs_8 vdd_sen SW 0) relay vt1=1500m vt2=2900m ropen=1T rclosed=1.0
W_sen_16 (sense_1_vs_9 vdd_sen SW 0) relay vt1=1500m vt2=2900m ropen=1T rclosed=1.0
W_sen_17 (sense_2_vs_3 vdd_sen SW 0) relay vt1=1500m vt2=2900m ropen=1T rclosed=1.0
W_sen_18 (sense_2_vs_4 vdd_sen SW 0) relay vt1=1500m vt2=2900m ropen=1T rclosed=1.0
W_sen_19 (sense_2_vs_5 vdd_sen SW 0) relay vt1=1500m vt2=2900m ropen=1T rclosed=1.0
W_sen_20 (sense_2_vs_6 vdd_sen SW 0) relay vt1=1500m vt2=2900m ropen=1T rclosed=1.0
W_sen_21 (sense_2_vs_7 vdd_sen SW 0) relay vt1=1500m vt2=2900m ropen=1T rclosed=1.0
W_sen_22 (sense_2_vs_8 vdd_sen SW 0) relay vt1=1500m vt2=2900m ropen=1T rclosed=1.0
W_sen_23 (sense_2_vs_9 vdd_sen SW 0) relay vt1=1500m vt2=2900m ropen=1T rclosed=1.0
W_sen_24 (sense_3_vs_4 vdd_sen SW 0) relay vt1=1500m vt2=2900m ropen=1T rclosed=1.0
W_sen_25 (sense_3_vs_5 vdd_sen SW 0) relay vt1=1500m vt2=2900m ropen=1T rclosed=1.0
W_sen_26 (sense_3_vs_6 vdd_sen SW 0) relay vt1=1500m vt2=2900m ropen=1T rclosed=1.0
W_sen_27 (sense_3_vs_7 vdd_sen SW 0) relay vt1=1500m vt2=2900m ropen=1T rclosed=1.0
W_sen_28 (sense_3_vs_8 vdd_sen SW 0) relay vt1=1500m vt2=2900m ropen=1T rclosed=1.0
W_sen_29 (sense_3_vs_9 vdd_sen SW 0) relay vt1=1500m vt2=2900m ropen=1T rclosed=1.0
W_sen_30 (sense_4_vs_5 vdd_sen SW 0) relay vt1=1500m vt2=2900m ropen=1T rclosed=1.0
W_sen_31 (sense_4_vs_6 vdd_sen SW 0) relay vt1=1500m vt2=2900m ropen=1T rclosed=1.0
W_sen_32 (sense_4_vs_7 vdd_sen SW 0) relay vt1=1500m vt2=2900m ropen=1T rclosed=1.0
W_sen_33 (sense_4_vs_8 vdd_sen SW 0) relay vt1=1500m vt2=2900m ropen=1T rclosed=1.0
W_sen_34 (sense_4_vs_9 vdd_sen SW 0) relay vt1=1500m vt2=2900m ropen=1T rclosed=1.0
W_sen_35 (sense_5_vs_6 vdd_sen SW 0) relay vt1=1500m vt2=2900m ropen=1T rclosed=1.0
W_sen_36 (sense_5_vs_7 vdd_sen SW 0) relay vt1=1500m vt2=2900m ropen=1T rclosed=1.0
W_sen_37 (sense_5_vs_8 vdd_sen SW 0) relay vt1=1500m vt2=2900m ropen=1T rclosed=1.0
W_sen_38 (sense_5_vs_9 vdd_sen SW 0) relay vt1=1500m vt2=2900m ropen=1T rclosed=1.0
W_sen_39 (sense_6_vs_7 vdd_sen SW 0) relay vt1=1500m vt2=2900m ropen=1T rclosed=1.0
W_sen_40 (sense_6_vs_8 vdd_sen SW 0) relay vt1=1500m vt2=2900m ropen=1T rclosed=1.0
W_sen_41 (sense_6_vs_9 vdd_sen SW 0) relay vt1=1500m vt2=2900m ropen=1T rclosed=1.0
W_sen_42 (sense_7_vs_8 vdd_sen SW 0) relay vt1=1500m vt2=2900m ropen=1T rclosed=1.0
W_sen_43 (sense_7_vs_9 vdd_sen SW 0) relay vt1=1500m vt2=2900m ropen=1T rclosed=1.0
W_sen_44 (sense_8_vs_9 vdd_sen SW 0) relay vt1=1500m vt2=2900m ropen=1T rclosed=1.0
Vwn0 (wn0 0) vsource dc=1760m type=dc 
Vwn31 (wn31 0) vsource dc=3000m type=dc 
I_wn (wn0 wn1 wn2 wn3 wn4 wn5 wn6 wn7 wn8 wn9 wn10 wn11 wn12 wn13 wn14 wn15 wn16 wn17 wn18 wn19 wn20 wn21 wn22 wn23 wn24 wn25 wn26 wn27 wn28 wn29 wn30 wn31) res_volt_divide
Vwp0 (wp0 0) vsource dc=1240m type=dc 
Vwp31 (wp31 0) vsource dc=0 type=dc 
I_wp (wp0 wp1 wp2 wp3 wp4 wp5 wp6 wp7 wp8 wp9 wp10 wp11 wp12 wp13 wp14 wp15 wp16 wp17 wp18 wp19 wp20 wp21 wp22 wp23 wp24 wp25 wp26 wp27 wp28 wp29 wp30 wp31) res_volt_divide
Voff_high (voff_high 0) vsource dc=0 type=dc 
Voff_low (voff_low 0) vsource dc=3 type=dc 
Vf0_0 (f0_0 0) vsource file="../data/features/f0_0.p" type=pwl
Vf0_1 (f0_1 0) vsource file="../data/features/f0_1.p" type=pwl
Vf0_2 (f0_2 0) vsource file="../data/features/f0_2.p" type=pwl
Vf0_3 (f0_3 0) vsource file="../data/features/f0_3.p" type=pwl
Vf0_4 (f0_4 0) vsource file="../data/features/f0_4.p" type=pwl
Vf1_0 (f1_0 0) vsource file="../data/features/f1_0.p" type=pwl
Vf1_1 (f1_1 0) vsource file="../data/features/f1_1.p" type=pwl
Vf1_2 (f1_2 0) vsource file="../data/features/f1_2.p" type=pwl
Vf1_3 (f1_3 0) vsource file="../data/features/f1_3.p" type=pwl
Vf1_4 (f1_4 0) vsource file="../data/features/f1_4.p" type=pwl
Vf2_0 (f2_0 0) vsource file="../data/features/f2_0.p" type=pwl
Vf2_1 (f2_1 0) vsource file="../data/features/f2_1.p" type=pwl
Vf2_2 (f2_2 0) vsource file="../data/features/f2_2.p" type=pwl
Vf2_3 (f2_3 0) vsource file="../data/features/f2_3.p" type=pwl
Vf2_4 (f2_4 0) vsource file="../data/features/f2_4.p" type=pwl
Vf3_0 (f3_0 0) vsource file="../data/features/f3_0.p" type=pwl
Vf3_1 (f3_1 0) vsource file="../data/features/f3_1.p" type=pwl
Vf3_2 (f3_2 0) vsource file="../data/features/f3_2.p" type=pwl
Vf3_3 (f3_3 0) vsource file="../data/features/f3_3.p" type=pwl
Vf3_4 (f3_4 0) vsource file="../data/features/f3_4.p" type=pwl
Vf4_0 (f4_0 0) vsource file="../data/features/f4_0.p" type=pwl
Vf4_1 (f4_1 0) vsource file="../data/features/f4_1.p" type=pwl
Vf4_2 (f4_2 0) vsource file="../data/features/f4_2.p" type=pwl
Vf4_3 (f4_3 0) vsource file="../data/features/f4_3.p" type=pwl
Vf4_4 (f4_4 0) vsource file="../data/features/f4_4.p" type=pwl
Vf5_0 (f5_0 0) vsource file="../data/features/f5_0.p" type=pwl
Vf5_1 (f5_1 0) vsource file="../data/features/f5_1.p" type=pwl
Vf5_2 (f5_2 0) vsource file="../data/features/f5_2.p" type=pwl
Vf5_3 (f5_3 0) vsource file="../data/features/f5_3.p" type=pwl
Vf5_4 (f5_4 0) vsource file="../data/features/f5_4.p" type=pwl
Vf6_0 (f6_0 0) vsource file="../data/features/f6_0.p" type=pwl
Vf6_1 (f6_1 0) vsource file="../data/features/f6_1.p" type=pwl
Vf6_2 (f6_2 0) vsource file="../data/features/f6_2.p" type=pwl
Vf6_3 (f6_3 0) vsource file="../data/features/f6_3.p" type=pwl
Vf6_4 (f6_4 0) vsource file="../data/features/f6_4.p" type=pwl
Vf7_0 (f7_0 0) vsource file="../data/features/f7_0.p" type=pwl
Vf7_1 (f7_1 0) vsource file="../data/features/f7_1.p" type=pwl
Vf7_2 (f7_2 0) vsource file="../data/features/f7_2.p" type=pwl
Vf7_3 (f7_3 0) vsource file="../data/features/f7_3.p" type=pwl
Vf7_4 (f7_4 0) vsource file="../data/features/f7_4.p" type=pwl
Vf8_0 (f8_0 0) vsource file="../data/features/f8_0.p" type=pwl
Vf8_1 (f8_1 0) vsource file="../data/features/f8_1.p" type=pwl
Vf8_2 (f8_2 0) vsource file="../data/features/f8_2.p" type=pwl
Vf8_3 (f8_3 0) vsource file="../data/features/f8_3.p" type=pwl
Vf8_4 (f8_4 0) vsource file="../data/features/f8_4.p" type=pwl
Vf9_0 (f9_0 0) vsource file="../data/features/f9_0.p" type=pwl
Vf9_1 (f9_1 0) vsource file="../data/features/f9_1.p" type=pwl
Vf9_2 (f9_2 0) vsource file="../data/features/f9_2.p" type=pwl
Vf9_3 (f9_3 0) vsource file="../data/features/f9_3.p" type=pwl
Vf9_4 (f9_4 0) vsource file="../data/features/f9_4.p" type=pwl
Vf10_0 (f10_0 0) vsource file="../data/features/f10_0.p" type=pwl
Vf10_1 (f10_1 0) vsource file="../data/features/f10_1.p" type=pwl
Vf10_2 (f10_2 0) vsource file="../data/features/f10_2.p" type=pwl
Vf10_3 (f10_3 0) vsource file="../data/features/f10_3.p" type=pwl
Vf10_4 (f10_4 0) vsource file="../data/features/f10_4.p" type=pwl
Vf11_0 (f11_0 0) vsource file="../data/features/f11_0.p" type=pwl
Vf11_1 (f11_1 0) vsource file="../data/features/f11_1.p" type=pwl
Vf11_2 (f11_2 0) vsource file="../data/features/f11_2.p" type=pwl
Vf11_3 (f11_3 0) vsource file="../data/features/f11_3.p" type=pwl
Vf11_4 (f11_4 0) vsource file="../data/features/f11_4.p" type=pwl
Vf12_0 (f12_0 0) vsource file="../data/features/f12_0.p" type=pwl
Vf12_1 (f12_1 0) vsource file="../data/features/f12_1.p" type=pwl
Vf12_2 (f12_2 0) vsource file="../data/features/f12_2.p" type=pwl
Vf12_3 (f12_3 0) vsource file="../data/features/f12_3.p" type=pwl
Vf12_4 (f12_4 0) vsource file="../data/features/f12_4.p" type=pwl
Vf13_0 (f13_0 0) vsource file="../data/features/f13_0.p" type=pwl
Vf13_1 (f13_1 0) vsource file="../data/features/f13_1.p" type=pwl
Vf13_2 (f13_2 0) vsource file="../data/features/f13_2.p" type=pwl
Vf13_3 (f13_3 0) vsource file="../data/features/f13_3.p" type=pwl
Vf13_4 (f13_4 0) vsource file="../data/features/f13_4.p" type=pwl
Vf14_0 (f14_0 0) vsource file="../data/features/f14_0.p" type=pwl
Vf14_1 (f14_1 0) vsource file="../data/features/f14_1.p" type=pwl
Vf14_2 (f14_2 0) vsource file="../data/features/f14_2.p" type=pwl
Vf14_3 (f14_3 0) vsource file="../data/features/f14_3.p" type=pwl
Vf14_4 (f14_4 0) vsource file="../data/features/f14_4.p" type=pwl
Vf15_0 (f15_0 0) vsource file="../data/features/f15_0.p" type=pwl
Vf15_1 (f15_1 0) vsource file="../data/features/f15_1.p" type=pwl
Vf15_2 (f15_2 0) vsource file="../data/features/f15_2.p" type=pwl
Vf15_3 (f15_3 0) vsource file="../data/features/f15_3.p" type=pwl
Vf15_4 (f15_4 0) vsource file="../data/features/f15_4.p" type=pwl
Vf16_0 (f16_0 0) vsource file="../data/features/f16_0.p" type=pwl
Vf16_1 (f16_1 0) vsource file="../data/features/f16_1.p" type=pwl
Vf16_2 (f16_2 0) vsource file="../data/features/f16_2.p" type=pwl
Vf16_3 (f16_3 0) vsource file="../data/features/f16_3.p" type=pwl
Vf16_4 (f16_4 0) vsource file="../data/features/f16_4.p" type=pwl
Vf17_0 (f17_0 0) vsource file="../data/features/f17_0.p" type=pwl
Vf17_1 (f17_1 0) vsource file="../data/features/f17_1.p" type=pwl
Vf17_2 (f17_2 0) vsource file="../data/features/f17_2.p" type=pwl
Vf17_3 (f17_3 0) vsource file="../data/features/f17_3.p" type=pwl
Vf17_4 (f17_4 0) vsource file="../data/features/f17_4.p" type=pwl
Vf18_0 (f18_0 0) vsource file="../data/features/f18_0.p" type=pwl
Vf18_1 (f18_1 0) vsource file="../data/features/f18_1.p" type=pwl
Vf18_2 (f18_2 0) vsource file="../data/features/f18_2.p" type=pwl
Vf18_3 (f18_3 0) vsource file="../data/features/f18_3.p" type=pwl
Vf18_4 (f18_4 0) vsource file="../data/features/f18_4.p" type=pwl
Vf19_0 (f19_0 0) vsource file="../data/features/f19_0.p" type=pwl
Vf19_1 (f19_1 0) vsource file="../data/features/f19_1.p" type=pwl
Vf19_2 (f19_2 0) vsource file="../data/features/f19_2.p" type=pwl
Vf19_3 (f19_3 0) vsource file="../data/features/f19_3.p" type=pwl
Vf19_4 (f19_4 0) vsource file="../data/features/f19_4.p" type=pwl
Vf20_0 (f20_0 0) vsource file="../data/features/f20_0.p" type=pwl
Vf20_1 (f20_1 0) vsource file="../data/features/f20_1.p" type=pwl
Vf20_2 (f20_2 0) vsource file="../data/features/f20_2.p" type=pwl
Vf20_3 (f20_3 0) vsource file="../data/features/f20_3.p" type=pwl
Vf20_4 (f20_4 0) vsource file="../data/features/f20_4.p" type=pwl
Vf21_0 (f21_0 0) vsource file="../data/features/f21_0.p" type=pwl
Vf21_1 (f21_1 0) vsource file="../data/features/f21_1.p" type=pwl
Vf21_2 (f21_2 0) vsource file="../data/features/f21_2.p" type=pwl
Vf21_3 (f21_3 0) vsource file="../data/features/f21_3.p" type=pwl
Vf21_4 (f21_4 0) vsource file="../data/features/f21_4.p" type=pwl
Vf22_0 (f22_0 0) vsource file="../data/features/f22_0.p" type=pwl
Vf22_1 (f22_1 0) vsource file="../data/features/f22_1.p" type=pwl
Vf22_2 (f22_2 0) vsource file="../data/features/f22_2.p" type=pwl
Vf22_3 (f22_3 0) vsource file="../data/features/f22_3.p" type=pwl
Vf22_4 (f22_4 0) vsource file="../data/features/f22_4.p" type=pwl
Vf23_0 (f23_0 0) vsource file="../data/features/f23_0.p" type=pwl
Vf23_1 (f23_1 0) vsource file="../data/features/f23_1.p" type=pwl
Vf23_2 (f23_2 0) vsource file="../data/features/f23_2.p" type=pwl
Vf23_3 (f23_3 0) vsource file="../data/features/f23_3.p" type=pwl
Vf23_4 (f23_4 0) vsource file="../data/features/f23_4.p" type=pwl
Vf24_0 (f24_0 0) vsource file="../data/features/f24_0.p" type=pwl
Vf24_1 (f24_1 0) vsource file="../data/features/f24_1.p" type=pwl
Vf24_2 (f24_2 0) vsource file="../data/features/f24_2.p" type=pwl
Vf24_3 (f24_3 0) vsource file="../data/features/f24_3.p" type=pwl
Vf24_4 (f24_4 0) vsource file="../data/features/f24_4.p" type=pwl
Vf25_0 (f25_0 0) vsource file="../data/features/f25_0.p" type=pwl
Vf25_1 (f25_1 0) vsource file="../data/features/f25_1.p" type=pwl
Vf25_2 (f25_2 0) vsource file="../data/features/f25_2.p" type=pwl
Vf25_3 (f25_3 0) vsource file="../data/features/f25_3.p" type=pwl
Vf25_4 (f25_4 0) vsource file="../data/features/f25_4.p" type=pwl
Vf26_0 (f26_0 0) vsource file="../data/features/f26_0.p" type=pwl
Vf26_1 (f26_1 0) vsource file="../data/features/f26_1.p" type=pwl
Vf26_2 (f26_2 0) vsource file="../data/features/f26_2.p" type=pwl
Vf26_3 (f26_3 0) vsource file="../data/features/f26_3.p" type=pwl
Vf26_4 (f26_4 0) vsource file="../data/features/f26_4.p" type=pwl
Vf27_0 (f27_0 0) vsource file="../data/features/f27_0.p" type=pwl
Vf27_1 (f27_1 0) vsource file="../data/features/f27_1.p" type=pwl
Vf27_2 (f27_2 0) vsource file="../data/features/f27_2.p" type=pwl
Vf27_3 (f27_3 0) vsource file="../data/features/f27_3.p" type=pwl
Vf27_4 (f27_4 0) vsource file="../data/features/f27_4.p" type=pwl
Vf28_0 (f28_0 0) vsource file="../data/features/f28_0.p" type=pwl
Vf28_1 (f28_1 0) vsource file="../data/features/f28_1.p" type=pwl
Vf28_2 (f28_2 0) vsource file="../data/features/f28_2.p" type=pwl
Vf28_3 (f28_3 0) vsource file="../data/features/f28_3.p" type=pwl
Vf28_4 (f28_4 0) vsource file="../data/features/f28_4.p" type=pwl
Vf29_0 (f29_0 0) vsource file="../data/features/f29_0.p" type=pwl
Vf29_1 (f29_1 0) vsource file="../data/features/f29_1.p" type=pwl
Vf29_2 (f29_2 0) vsource file="../data/features/f29_2.p" type=pwl
Vf29_3 (f29_3 0) vsource file="../data/features/f29_3.p" type=pwl
Vf29_4 (f29_4 0) vsource file="../data/features/f29_4.p" type=pwl
Vf30_0 (f30_0 0) vsource file="../data/features/f30_0.p" type=pwl
Vf30_1 (f30_1 0) vsource file="../data/features/f30_1.p" type=pwl
Vf30_2 (f30_2 0) vsource file="../data/features/f30_2.p" type=pwl
Vf30_3 (f30_3 0) vsource file="../data/features/f30_3.p" type=pwl
Vf30_4 (f30_4 0) vsource file="../data/features/f30_4.p" type=pwl
Vf31_0 (f31_0 0) vsource file="../data/features/f31_0.p" type=pwl
Vf31_1 (f31_1 0) vsource file="../data/features/f31_1.p" type=pwl
Vf31_2 (f31_2 0) vsource file="../data/features/f31_2.p" type=pwl
Vf31_3 (f31_3 0) vsource file="../data/features/f31_3.p" type=pwl
Vf31_4 (f31_4 0) vsource file="../data/features/f31_4.p" type=pwl
Vf32_0 (f32_0 0) vsource file="../data/features/f32_0.p" type=pwl
Vf32_1 (f32_1 0) vsource file="../data/features/f32_1.p" type=pwl
Vf32_2 (f32_2 0) vsource file="../data/features/f32_2.p" type=pwl
Vf32_3 (f32_3 0) vsource file="../data/features/f32_3.p" type=pwl
Vf32_4 (f32_4 0) vsource file="../data/features/f32_4.p" type=pwl
Vf33_0 (f33_0 0) vsource file="../data/features/f33_0.p" type=pwl
Vf33_1 (f33_1 0) vsource file="../data/features/f33_1.p" type=pwl
Vf33_2 (f33_2 0) vsource file="../data/features/f33_2.p" type=pwl
Vf33_3 (f33_3 0) vsource file="../data/features/f33_3.p" type=pwl
Vf33_4 (f33_4 0) vsource file="../data/features/f33_4.p" type=pwl
Vf34_0 (f34_0 0) vsource file="../data/features/f34_0.p" type=pwl
Vf34_1 (f34_1 0) vsource file="../data/features/f34_1.p" type=pwl
Vf34_2 (f34_2 0) vsource file="../data/features/f34_2.p" type=pwl
Vf34_3 (f34_3 0) vsource file="../data/features/f34_3.p" type=pwl
Vf34_4 (f34_4 0) vsource file="../data/features/f34_4.p" type=pwl
Vf35_0 (f35_0 0) vsource file="../data/features/f35_0.p" type=pwl
Vf35_1 (f35_1 0) vsource file="../data/features/f35_1.p" type=pwl
Vf35_2 (f35_2 0) vsource file="../data/features/f35_2.p" type=pwl
Vf35_3 (f35_3 0) vsource file="../data/features/f35_3.p" type=pwl
Vf35_4 (f35_4 0) vsource file="../data/features/f35_4.p" type=pwl
Vf36_0 (f36_0 0) vsource file="../data/features/f36_0.p" type=pwl
Vf36_1 (f36_1 0) vsource file="../data/features/f36_1.p" type=pwl
Vf36_2 (f36_2 0) vsource file="../data/features/f36_2.p" type=pwl
Vf36_3 (f36_3 0) vsource file="../data/features/f36_3.p" type=pwl
Vf36_4 (f36_4 0) vsource file="../data/features/f36_4.p" type=pwl
Vf37_0 (f37_0 0) vsource file="../data/features/f37_0.p" type=pwl
Vf37_1 (f37_1 0) vsource file="../data/features/f37_1.p" type=pwl
Vf37_2 (f37_2 0) vsource file="../data/features/f37_2.p" type=pwl
Vf37_3 (f37_3 0) vsource file="../data/features/f37_3.p" type=pwl
Vf37_4 (f37_4 0) vsource file="../data/features/f37_4.p" type=pwl
Vf38_0 (f38_0 0) vsource file="../data/features/f38_0.p" type=pwl
Vf38_1 (f38_1 0) vsource file="../data/features/f38_1.p" type=pwl
Vf38_2 (f38_2 0) vsource file="../data/features/f38_2.p" type=pwl
Vf38_3 (f38_3 0) vsource file="../data/features/f38_3.p" type=pwl
Vf38_4 (f38_4 0) vsource file="../data/features/f38_4.p" type=pwl
Vf39_0 (f39_0 0) vsource file="../data/features/f39_0.p" type=pwl
Vf39_1 (f39_1 0) vsource file="../data/features/f39_1.p" type=pwl
Vf39_2 (f39_2 0) vsource file="../data/features/f39_2.p" type=pwl
Vf39_3 (f39_3 0) vsource file="../data/features/f39_3.p" type=pwl
Vf39_4 (f39_4 0) vsource file="../data/features/f39_4.p" type=pwl
Vf40_0 (f40_0 0) vsource file="../data/features/f40_0.p" type=pwl
Vf40_1 (f40_1 0) vsource file="../data/features/f40_1.p" type=pwl
Vf40_2 (f40_2 0) vsource file="../data/features/f40_2.p" type=pwl
Vf40_3 (f40_3 0) vsource file="../data/features/f40_3.p" type=pwl
Vf40_4 (f40_4 0) vsource file="../data/features/f40_4.p" type=pwl
Vf41_0 (f41_0 0) vsource file="../data/features/f41_0.p" type=pwl
Vf41_1 (f41_1 0) vsource file="../data/features/f41_1.p" type=pwl
Vf41_2 (f41_2 0) vsource file="../data/features/f41_2.p" type=pwl
Vf41_3 (f41_3 0) vsource file="../data/features/f41_3.p" type=pwl
Vf41_4 (f41_4 0) vsource file="../data/features/f41_4.p" type=pwl
Vf42_0 (f42_0 0) vsource file="../data/features/f42_0.p" type=pwl
Vf42_1 (f42_1 0) vsource file="../data/features/f42_1.p" type=pwl
Vf42_2 (f42_2 0) vsource file="../data/features/f42_2.p" type=pwl
Vf42_3 (f42_3 0) vsource file="../data/features/f42_3.p" type=pwl
Vf42_4 (f42_4 0) vsource file="../data/features/f42_4.p" type=pwl
Vf43_0 (f43_0 0) vsource file="../data/features/f43_0.p" type=pwl
Vf43_1 (f43_1 0) vsource file="../data/features/f43_1.p" type=pwl
Vf43_2 (f43_2 0) vsource file="../data/features/f43_2.p" type=pwl
Vf43_3 (f43_3 0) vsource file="../data/features/f43_3.p" type=pwl
Vf43_4 (f43_4 0) vsource file="../data/features/f43_4.p" type=pwl
Vf44_0 (f44_0 0) vsource file="../data/features/f44_0.p" type=pwl
Vf44_1 (f44_1 0) vsource file="../data/features/f44_1.p" type=pwl
Vf44_2 (f44_2 0) vsource file="../data/features/f44_2.p" type=pwl
Vf44_3 (f44_3 0) vsource file="../data/features/f44_3.p" type=pwl
Vf44_4 (f44_4 0) vsource file="../data/features/f44_4.p" type=pwl
Vf45_0 (f45_0 0) vsource file="../data/features/f45_0.p" type=pwl
Vf45_1 (f45_1 0) vsource file="../data/features/f45_1.p" type=pwl
Vf45_2 (f45_2 0) vsource file="../data/features/f45_2.p" type=pwl
Vf45_3 (f45_3 0) vsource file="../data/features/f45_3.p" type=pwl
Vf45_4 (f45_4 0) vsource file="../data/features/f45_4.p" type=pwl
Vf46_0 (f46_0 0) vsource file="../data/features/f46_0.p" type=pwl
Vf46_1 (f46_1 0) vsource file="../data/features/f46_1.p" type=pwl
Vf46_2 (f46_2 0) vsource file="../data/features/f46_2.p" type=pwl
Vf46_3 (f46_3 0) vsource file="../data/features/f46_3.p" type=pwl
Vf46_4 (f46_4 0) vsource file="../data/features/f46_4.p" type=pwl
Vf47_0 (f47_0 0) vsource file="../data/features/f47_0.p" type=pwl
Vf47_1 (f47_1 0) vsource file="../data/features/f47_1.p" type=pwl
Vf47_2 (f47_2 0) vsource file="../data/features/f47_2.p" type=pwl
Vf47_3 (f47_3 0) vsource file="../data/features/f47_3.p" type=pwl
Vf47_4 (f47_4 0) vsource file="../data/features/f47_4.p" type=pwl
Vf48_0 (f48_0 0) vsource file="../data/features/f48_0.p" type=pwl
Vf48_1 (f48_1 0) vsource file="../data/features/f48_1.p" type=pwl
Vf48_2 (f48_2 0) vsource file="../data/features/f48_2.p" type=pwl
Vf48_3 (f48_3 0) vsource file="../data/features/f48_3.p" type=pwl
Vf48_4 (f48_4 0) vsource file="../data/features/f48_4.p" type=pwl
Vf49_0 (f49_0 0) vsource file="../data/features/f49_0.p" type=pwl
Vf49_1 (f49_1 0) vsource file="../data/features/f49_1.p" type=pwl
Vf49_2 (f49_2 0) vsource file="../data/features/f49_2.p" type=pwl
Vf49_3 (f49_3 0) vsource file="../data/features/f49_3.p" type=pwl
Vf49_4 (f49_4 0) vsource file="../data/features/f49_4.p" type=pwl
Vf50_0 (f50_0 0) vsource file="../data/features/f50_0.p" type=pwl
Vf50_1 (f50_1 0) vsource file="../data/features/f50_1.p" type=pwl
Vf50_2 (f50_2 0) vsource file="../data/features/f50_2.p" type=pwl
Vf50_3 (f50_3 0) vsource file="../data/features/f50_3.p" type=pwl
Vf50_4 (f50_4 0) vsource file="../data/features/f50_4.p" type=pwl
Vf51_0 (f51_0 0) vsource file="../data/features/f51_0.p" type=pwl
Vf51_1 (f51_1 0) vsource file="../data/features/f51_1.p" type=pwl
Vf51_2 (f51_2 0) vsource file="../data/features/f51_2.p" type=pwl
Vf51_3 (f51_3 0) vsource file="../data/features/f51_3.p" type=pwl
Vf51_4 (f51_4 0) vsource file="../data/features/f51_4.p" type=pwl
Vf52_0 (f52_0 0) vsource file="../data/features/f52_0.p" type=pwl
Vf52_1 (f52_1 0) vsource file="../data/features/f52_1.p" type=pwl
Vf52_2 (f52_2 0) vsource file="../data/features/f52_2.p" type=pwl
Vf52_3 (f52_3 0) vsource file="../data/features/f52_3.p" type=pwl
Vf52_4 (f52_4 0) vsource file="../data/features/f52_4.p" type=pwl
Vf53_0 (f53_0 0) vsource file="../data/features/f53_0.p" type=pwl
Vf53_1 (f53_1 0) vsource file="../data/features/f53_1.p" type=pwl
Vf53_2 (f53_2 0) vsource file="../data/features/f53_2.p" type=pwl
Vf53_3 (f53_3 0) vsource file="../data/features/f53_3.p" type=pwl
Vf53_4 (f53_4 0) vsource file="../data/features/f53_4.p" type=pwl
Vf54_0 (f54_0 0) vsource file="../data/features/f54_0.p" type=pwl
Vf54_1 (f54_1 0) vsource file="../data/features/f54_1.p" type=pwl
Vf54_2 (f54_2 0) vsource file="../data/features/f54_2.p" type=pwl
Vf54_3 (f54_3 0) vsource file="../data/features/f54_3.p" type=pwl
Vf54_4 (f54_4 0) vsource file="../data/features/f54_4.p" type=pwl
Vf55_0 (f55_0 0) vsource file="../data/features/f55_0.p" type=pwl
Vf55_1 (f55_1 0) vsource file="../data/features/f55_1.p" type=pwl
Vf55_2 (f55_2 0) vsource file="../data/features/f55_2.p" type=pwl
Vf55_3 (f55_3 0) vsource file="../data/features/f55_3.p" type=pwl
Vf55_4 (f55_4 0) vsource file="../data/features/f55_4.p" type=pwl
Vf56_0 (f56_0 0) vsource file="../data/features/f56_0.p" type=pwl
Vf56_1 (f56_1 0) vsource file="../data/features/f56_1.p" type=pwl
Vf56_2 (f56_2 0) vsource file="../data/features/f56_2.p" type=pwl
Vf56_3 (f56_3 0) vsource file="../data/features/f56_3.p" type=pwl
Vf56_4 (f56_4 0) vsource file="../data/features/f56_4.p" type=pwl
Vf57_0 (f57_0 0) vsource file="../data/features/f57_0.p" type=pwl
Vf57_1 (f57_1 0) vsource file="../data/features/f57_1.p" type=pwl
Vf57_2 (f57_2 0) vsource file="../data/features/f57_2.p" type=pwl
Vf57_3 (f57_3 0) vsource file="../data/features/f57_3.p" type=pwl
Vf57_4 (f57_4 0) vsource file="../data/features/f57_4.p" type=pwl
Vf58_0 (f58_0 0) vsource file="../data/features/f58_0.p" type=pwl
Vf58_1 (f58_1 0) vsource file="../data/features/f58_1.p" type=pwl
Vf58_2 (f58_2 0) vsource file="../data/features/f58_2.p" type=pwl
Vf58_3 (f58_3 0) vsource file="../data/features/f58_3.p" type=pwl
Vf58_4 (f58_4 0) vsource file="../data/features/f58_4.p" type=pwl
Vf59_0 (f59_0 0) vsource file="../data/features/f59_0.p" type=pwl
Vf59_1 (f59_1 0) vsource file="../data/features/f59_1.p" type=pwl
Vf59_2 (f59_2 0) vsource file="../data/features/f59_2.p" type=pwl
Vf59_3 (f59_3 0) vsource file="../data/features/f59_3.p" type=pwl
Vf59_4 (f59_4 0) vsource file="../data/features/f59_4.p" type=pwl
Vf60_0 (f60_0 0) vsource file="../data/features/f60_0.p" type=pwl
Vf60_1 (f60_1 0) vsource file="../data/features/f60_1.p" type=pwl
Vf60_2 (f60_2 0) vsource file="../data/features/f60_2.p" type=pwl
Vf60_3 (f60_3 0) vsource file="../data/features/f60_3.p" type=pwl
Vf60_4 (f60_4 0) vsource file="../data/features/f60_4.p" type=pwl
Vf61_0 (f61_0 0) vsource file="../data/features/f61_0.p" type=pwl
Vf61_1 (f61_1 0) vsource file="../data/features/f61_1.p" type=pwl
Vf61_2 (f61_2 0) vsource file="../data/features/f61_2.p" type=pwl
Vf61_3 (f61_3 0) vsource file="../data/features/f61_3.p" type=pwl
Vf61_4 (f61_4 0) vsource file="../data/features/f61_4.p" type=pwl
Vf62_0 (f62_0 0) vsource file="../data/features/f62_0.p" type=pwl
Vf62_1 (f62_1 0) vsource file="../data/features/f62_1.p" type=pwl
Vf62_2 (f62_2 0) vsource file="../data/features/f62_2.p" type=pwl
Vf62_3 (f62_3 0) vsource file="../data/features/f62_3.p" type=pwl
Vf62_4 (f62_4 0) vsource file="../data/features/f62_4.p" type=pwl
Vf63_0 (f63_0 0) vsource file="../data/features/f63_0.p" type=pwl
Vf63_1 (f63_1 0) vsource file="../data/features/f63_1.p" type=pwl
Vf63_2 (f63_2 0) vsource file="../data/features/f63_2.p" type=pwl
Vf63_3 (f63_3 0) vsource file="../data/features/f63_3.p" type=pwl
Vf63_4 (f63_4 0) vsource file="../data/features/f63_4.p" type=pwl
Vfn0 (fn0 0) vsource dc=1760m type=dc 
Vfn31 (fn31 0) vsource dc=3000m type=dc 
I_fn (fn0 fn1 fn2 fn3 fn4 fn5 fn6 fn7 fn8 fn9 fn10 fn11 fn12 fn13 fn14 fn15 fn16 fn17 fn18 fn19 fn20 fn21 fn22 fn23 fn24 fn25 fn26 fn27 fn28 fn29 fn30 fn31) res_volt_divide